
  NIST    07011509413D 1   1.00000  -194.34803
Copyright by the U.S. Sec. Commerce on behalf of U.S.A. All rights reserved.
 12 11  0  0  0  0  0  0  0  0999 V2000
    0.7551    1.5185    1.3863 C    0  0  0  0  0  0  0  0  0  0  0  0
    2.1672    1.0356    1.0430 C    0  0  0  0  0  0  0  0  0  0  0  0
    3.2747    1.8811    1.6808 C    0  0  0  0  0  0  0  0  0  0  0  0
    0.4521    1.4365    2.7758 O    0  0  0  0  0  0  0  0  0  0  0  0
    0.6090    2.5463    1.0119 H    0  0  0  0  0  0  0  0  0  0  0  0
    0.0129    0.8845    0.8901 H    0  0  0  0  0  0  0  0  0  0  0  0
    2.2785    1.0441   -0.0503 H    0  0  0  0  0  0  0  0  0  0  0  0
    2.2660   -0.0086    1.3658 H    0  0  0  0  0  0  0  0  0  0  0  0
    3.2230    1.8453    2.7760 H    0  0  0  0  0  0  0  0  0  0  0  0
    3.2041    2.9322    1.3719 H    0  0  0  0  0  0  0  0  0  0  0  0
    4.2676    1.5178    1.3950 H    0  0  0  0  0  0  0  0  0  0  0  0
    0.9983    2.0925    3.2342 H    0  0  0  0  0  0  0  0  0  0  0  0
  1  2  1  0  0  0  0
  1  4  1  0  0  0  0
  1  5  1  0  0  0  0
  1  6  1  0  0  0  0
  2  3  1  0  0  0  0
  2  7  1  0  0  0  0
  2  8  1  0  0  0  0
  3  9  1  0  0  0  0
  3 10  1  0  0  0  0
  3 11  1  0  0  0  0
  4 12  1  0  0  0  0
M  END
> <COPYRIGHT>
Collection (C) 2016 copyright by the U.S. Secretary of Commerce on behalf of the United States of America. All rights reserved.

> <DATE>
2015-07-01

> <CAS.NUMBER>
71-23-8

> <METHOD>
B3LYP/6-31G*

> <DIPOLE.MOMENT>
1.6774 debye

> <ELECTRONIC.ENERGY>
-194.348027380 hartree

> <IR.FREQUENCIES>
"Frequency (cm-1)"   "Intensity (km/mol)"
139.6410  3.6570
231.7168  12.7699
299.5513  51.9494
345.2258  80.2507
481.5159  2.6531
776.5881  1.6678
857.8633  9.5377
916.5541  3.4714
996.2548  36.9855
1088.7013  1.6310
1101.1799  81.7982
1154.2592  2.6648
1250.3632  16.1378
1312.7909  1.9188
1394.0188  1.0515
1407.4897  4.6531
1432.7562  32.0688
1446.3803  16.0577
1508.0942  2.5391
1526.9458  5.6542
1535.7908  1.0776
1542.1113  5.7241
2984.8491  65.5202
3038.0766  7.0727
3039.6426  44.0681
3076.1397  7.9253
3099.2741  45.1234
3103.9194  69.9943
3117.0394  33.0463
3755.3922  8.8536

> <ROTATIONAL.CONSTANTS>
14.21972 GHz
5.02477 GHz
4.22108 GHz

> <SOFTWARE>
Gaussian 09, Revision D.01

> <CONTRIBUTOR>
Avi Newman

$$$$
