
  NIST    07091509173D 1   1.00000   -57.02061
Copyright by the U.S. Sec. Commerce on behalf of U.S.A. All rights reserved.
  5  4  0  0  0  0  0  0  0  0999 V2000
    0.0000    0.0000   -0.0001 N    0  0  0  0  0  0  0  0  0  0  0  0
    1.0847   -0.0002    0.0270 H    0  0  0  0  0  0  0  0  0  0  0  0
   -0.3619    1.0226    0.0267 H    0  0  0  0  0  0  0  0  0  0  0  0
   -0.3395   -0.4804   -0.9124 H    0  0  0  0  0  0  0  0  0  0  0  0
   -0.3832   -0.5417    0.8585 H    0  0  0  0  0  0  0  0  0  0  0  0
  1  2  1  0  0  0  0
  1  3  1  0  0  0  0
  1  4  1  0  0  0  0
  1  5  1  0  0  0  0
M  CHG  1   1   1
M  END
> <COPYRIGHT>
Collection (C) 2016 copyright by the U.S. Secretary of Commerce on behalf of the United States of America. All rights reserved.

> <DATE>
2015-07-09

> <CAS.NUMBER>
14798-03-9

> <METHOD>
B3LYP/6-31G*

> <DIPOLE.MOMENT>
0.0034 debye

> <ELECTRONIC.ENERGY>
-57.0206073000 hartree

> <IR.FREQUENCIES>
"Frequency (cm-1)"   "Intensity (km/mol)"
828.1071  671.2236
830.4266  657.4680
830.7019  656.8711
1384.6193  0.0001
1384.8052  0.0003
1959.1571  1923.9638
1966.7688  1917.6339
1967.8760  1916.4192
2637.5863  0.0212

> <ROTATIONAL.CONSTANTS>
159.74162 GHz
159.66136 GHz
159.64140 GHz

> <SOFTWARE>
Gaussian 09, Revision D.01

> <CONTRIBUTOR>
Ashley Zhang

$$$$
