
  NIST    06301514543D 1   1.00000  -135.16286
Copyright by the U.S. Sec. Commerce on behalf of U.S.A. All rights reserved.
 10  9  0  0  0  0  0  0  0  0999 V2000
    0.9048    1.0724    1.4891 C    0  0  0  0  0  0  0  0  0  0  0  0
    2.0939    1.7762    1.0265 N    0  0  0  0  0  0  0  0  0  0  0  0
    3.3292    1.1723    1.5088 C    0  0  0  0  0  0  0  0  0  0  0  0
    0.8277    1.1701    2.5790 H    0  0  0  0  0  0  0  0  0  0  0  0
    0.0118    1.5305    1.0506 H    0  0  0  0  0  0  0  0  0  0  0  0
    0.8918   -0.0094    1.2525 H    0  0  0  0  0  0  0  0  0  0  0  0
    2.1020    1.7826    0.0086 H    0  0  0  0  0  0  0  0  0  0  0  0
    4.1886    1.7025    1.0846 H    0  0  0  0  0  0  0  0  0  0  0  0
    3.3803    1.2751    2.5998 H    0  0  0  0  0  0  0  0  0  0  0  0
    3.4351    0.0954    1.2730 H    0  0  0  0  0  0  0  0  0  0  0  0
  1  2  1  0  0  0  0
  1  4  1  0  0  0  0
  1  5  1  0  0  0  0
  1  6  1  0  0  0  0
  2  3  1  0  0  0  0
  2  7  1  0  0  0  0
  3  8  1  0  0  0  0
  3  9  1  0  0  0  0
  3 10  1  0  0  0  0
M  END
> <COPYRIGHT>
Collection (C) 2016 copyright by the U.S. Secretary of Commerce on behalf of the United States of America. All rights reserved.

> <DATE>
2015-06-30

> <CAS.NUMBER>
124-40-3

> <METHOD>
B3LYP/6-31G*

> <DIPOLE.MOMENT>
1.0283 debye

> <ELECTRONIC.ENERGY>
-135.162855918 hartree

> <IR.FREQUENCIES>
"Frequency (cm-1)"   "Intensity (km/mol)"
245.7760  0.2249
272.1350  2.7359
386.8802  6.0764
796.8869  124.8885
955.3075  1.2175
1045.6848  9.9836
1112.5193  0.0523
1183.1679  33.2084
1202.9092  6.9194
1284.1774  0.2983
1466.8620  3.2541
1496.3083  1.0968
1499.8862  6.2078
1512.9906  6.1327
1525.4686  8.8370
1544.0816  11.0762
1548.1115  0.7027
2938.7778  45.8863
2946.2644  161.1753
3068.0015  28.1495
3069.4229  55.0167
3116.5509  28.9076
3117.2821  41.6554
3494.2240  1.5669

> <ROTATIONAL.CONSTANTS>
34.52534 GHz
9.28762 GHz
8.20347 GHz

> <SOFTWARE>
Gaussian 09, Revision D.01

> <CONTRIBUTOR>
Ashley Zhang

$$$$
