
  NIST    06301516353D 1   1.00000  -280.87856
Copyright by the U.S. Sec. Commerce on behalf of U.S.A. All rights reserved.
  5  4  0  0  0  0  0  0  0  0999 V2000
    1.7933    1.0020    0.2911 N    0  0  0  0  0  0  0  0  0  0  0  0
    2.4488    0.0064    0.4504 O    0  0  0  0  0  0  0  0  0  0  0  0
    2.1294    2.1711    0.2571 O    0  0  0  0  0  0  0  0  0  0  0  0
    0.4148    0.7567    0.1173 O    0  0  0  0  0  0  0  0  0  0  0  0
    0.0500    1.6578    0.0048 H    0  0  0  0  0  0  0  0  0  0  0  0
  1  2  2  0  0  0  0
  1  3  2  0  0  0  0
  1  4  1  0  0  0  0
  4  5  1  0  0  0  0
M  END
> <COPYRIGHT>
Collection (C) 2016 copyright by the U.S. Secretary of Commerce on behalf of the United States of America. All rights reserved.

> <DATE>
2015-06-30

> <CAS.NUMBER>
7697-37-2

> <METHOD>
B3LYP/6-31G*

> <DIPOLE.MOMENT>
2.3503 debye

> <ELECTRONIC.ENERGY>
-280.878558198 hartree

> <IR.FREQUENCIES>
"Frequency (cm-1)"   "Intensity (km/mol)"
505.5933  131.7435
580.7682  9.4230
650.6563  5.0628
769.1293  13.8256
915.0805  169.2941
1346.8151  43.7823
1373.2649  308.9347
1803.6437  327.0884
3669.1259  76.4655

> <ROTATIONAL.CONSTANTS>
12.87662 GHz
12.04226 GHz
6.22273 GHz

> <SOFTWARE>
Gaussian 09, Revision D.01

> <CONTRIBUTOR>
Avi Newman

$$$$
