
  NIST    07091508413D 1   1.00000   -75.72345
Copyright by the U.S. Sec. Commerce on behalf of U.S.A. All rights reserved.
  2  1  0  0  0  0  0  0  0  0999 V2000
   -0.0203    0.0000    0.0000 O    0  0  0  0  0  0  0  0  0  0  0  0
    0.9623    0.0000    0.0000 H    0  0  0  0  0  0  0  0  0  0  0  0
  1  2  1  0  0  0  0
M  CHG  1   1  -1
M  END
> <COPYRIGHT>
Collection (C) 2016 copyright by the U.S. Secretary of Commerce on behalf of the United States of America. All rights reserved.

> <DATE>
2015-07-09

> <CAS.NUMBER>
14280-30-9

> <METHOD>
B3LYP/6-31G*

> <DIPOLE.MOMENT>
1.7574 debye

> <ELECTRONIC.ENERGY>
-75.7234547644 hartree

> <IR.FREQUENCIES>
"Frequency (cm-1)"   "Intensity (km/mol)"
3649.0619  1.6553

> <ROTATIONAL.CONSTANTS>
0.0000000 GHz
552.0971587 GHz
552.0971587 GHz

> <SOFTWARE>
Gaussian 09, Revision D.01

> <CONTRIBUTOR>
Ashley Zhang

$$$$
