
  NIST    07011508183D 1   1.00000  -194.35332
Copyright by the U.S. Sec. Commerce on behalf of U.S.A. All rights reserved.
 12 11  0  0  0  0  0  0  0  0999 V2000
    0.6136    1.1900    1.9927 C    0  0  0  0  0  0  0  0  0  0  0  0
    2.0696    1.6482    2.1007 C    0  0  0  0  0  0  0  0  0  0  0  0
    2.9420    1.0910    0.9822 C    0  0  0  0  0  0  0  0  0  0  0  0
    2.1690    3.0732    2.0130 O    0  0  0  0  0  0  0  0  0  0  0  0
    0.1844    1.5146    1.0381 H    0  0  0  0  0  0  0  0  0  0  0  0
    0.5342    0.0984    2.0582 H    0  0  0  0  0  0  0  0  0  0  0  0
    0.0054    1.6148    2.8022 H    0  0  0  0  0  0  0  0  0  0  0  0
    2.4775    1.3077    3.0683 H    0  0  0  0  0  0  0  0  0  0  0  0
    2.9622   -0.0038    1.0125 H    0  0  0  0  0  0  0  0  0  0  0  0
    2.5546    1.4069    0.0069 H    0  0  0  0  0  0  0  0  0  0  0  0
    3.9668    1.4627    1.0793 H    0  0  0  0  0  0  0  0  0  0  0  0
    1.6151    3.4489    2.7150 H    0  0  0  0  0  0  0  0  0  0  0  0
  1  2  1  0  0  0  0
  1  5  1  0  0  0  0
  1  6  1  0  0  0  0
  1  7  1  0  0  0  0
  2  3  1  0  0  0  0
  2  4  1  0  0  0  0
  2  8  1  0  0  0  0
  3  9  1  0  0  0  0
  3 10  1  0  0  0  0
  3 11  1  0  0  0  0
  4 12  1  0  0  0  0
M  END
> <COPYRIGHT>
Collection (C) 2016 copyright by the U.S. Secretary of Commerce on behalf of the United States of America. All rights reserved.

> <DATE>
2015-07-01

> <CAS.NUMBER>
67-63-0

> <METHOD>
B3LYP/6-31G*

> <DIPOLE.MOMENT>
1.5591 debye

> <ELECTRONIC.ENERGY>
-194.353320466 hartree

> <IR.FREQUENCIES>
"Frequency (cm-1)"   "Intensity (km/mol)"
220.7584  3.9598
269.1399  0.8940
319.0921  116.2238
361.9509  2.5528
414.9303  9.4262
483.1656  7.8446
828.2005  3.2146
939.4608  0.1891
958.7199  3.4168
976.8819  41.2516
1097.4167  22.5254
1175.1224  20.7577
1201.2445  32.8651
1297.0232  57.7887
1396.5275  20.5576
1416.9857  0.4144
1439.3501  17.9438
1455.0601  17.1189
1512.5434  0.9532
1518.2652  0.9844
1528.2504  4.0588
1538.9650  4.4775
2972.3322  68.1471
3038.7352  24.9048
3056.3200  11.8839
3101.9057  37.1052
3120.3531  3.3756
3128.1582  59.1532
3134.5509  27.1078
3740.2405  6.0259

> <ROTATIONAL.CONSTANTS>
8.65175 GHz
7.98945 GHz
4.74592 GHz

> <SOFTWARE>
Gaussian 09, Revision D.01

> <CONTRIBUTOR>
Ashley Zhang

$$$$
