Magnesium hydride (MgH2)
  NIST    06271311493D 1   1.00000  -201.24723
Copyright by the U.S. Sec. Commerce on behalf of U.S.A. All rights reserved.
  3  2  0  0  0  0  0  0  0  0999 V2000
    1.2127    0.6996    0.0000 Mg   0  0  0  0  0  0  0  0  0  0  0  0
    2.6961   -0.1562    0.0000 H    0  0  0  0  0  0  0  0  0  0  0  0
   -0.2707    1.5554    0.0000 H    0  0  0  0  0  0  0  0  0  0  0  0
  1  2  1  0
  1  3  1  0
M  END
> <COPYRIGHT>
Collection (C) 2016 copyright by the U.S. Secretary of Commerce on behalf of the United States of America. All rights reserved.

> <DATE>
2013-06-27

> <CAS.NUMBER>
7693-27-8

> <SYNONYMS>
Magnesium hydride (MgH2)
Magnesium dihydride
Magnesium hydride
Tego Magnan

> <METHOD>
B3LYP/6-31G*

> <DIPOLE.MOMENT>
0.0000 debye

> <ELECTRONIC.ENERGY>
-201.247233490 hartree

> <IR.FREQUENCIES>
"Frequency (cm-1)"   "Intensity (km/mol)"
449.9921  436.4193
451.1023  436.3292
1596.9843  0.0000
1628.4862  360.1365

> <ROTATIONAL.CONSTANTS>
0.0000000 GHz
85.4871860 GHz
85.4871860 GHz

> <SOFTWARE>
Gaussian 09, Revision D.01

> <CONTRIBUTOR>
Michael Liou

$$$$
