
  NIST    07011509283D 1   1.00000   -95.85321
Copyright by the U.S. Sec. Commerce on behalf of U.S.A. All rights reserved.
  7  6  0  0  0  0  0  0  0  0999 V2000
    0.6147    1.0867    0.8571 C    0  0  0  0  0  0  0  0  0  0  0  0
    1.9021    1.7634    1.0319 N    0  0  0  0  0  0  0  0  0  0  0  0
    0.0879    1.5325    0.0061 H    0  0  0  0  0  0  0  0  0  0  0  0
    0.6641   -0.0036    0.6869 H    0  0  0  0  0  0  0  0  0  0  0  0
   -0.0036    1.2570    1.7453 H    0  0  0  0  0  0  0  0  0  0  0  0
    2.4036    1.3486    1.8155 H    0  0  0  0  0  0  0  0  0  0  0  0
    2.4869    1.6039    0.2133 H    0  0  0  0  0  0  0  0  0  0  0  0
  1  2  1  0  0  0  0
  1  3  1  0  0  0  0
  1  4  1  0  0  0  0
  1  5  1  0  0  0  0
  2  6  1  0  0  0  0
  2  7  1  0  0  0  0
M  END
> <COPYRIGHT>
Collection (C) 2016 copyright by the U.S. Secretary of Commerce on behalf of the United States of America. All rights reserved.

> <DATE>
2015-07-01

> <CAS.NUMBER>
74-89-5

> <METHOD>
B3LYP/6-31G*

> <DIPOLE.MOMENT>
1.4697 debye

> <ELECTRONIC.ENERGY>
-95.8532079710 hartree

> <IR.FREQUENCIES>
"Frequency (cm-1)"   "Intensity (km/mol)"
332.5699  44.9321
878.5043  169.6722
988.1278  0.0018
1070.7898  7.1322
1193.0799  8.1633
1371.6762  0.1158
1485.7399  3.1764
1528.3789  8.3220
1547.3468  1.9500
1703.8358  21.1125
2970.3257  103.3166
3078.9471  42.0640
3118.8679  36.5413
3466.3188  2.4431
3549.4828  0.8550

> <ROTATIONAL.CONSTANTS>
102.72590 GHz
22.71620 GHz
21.85801 GHz

> <SOFTWARE>
Gaussian 09, Revision D.01

> <CONTRIBUTOR>
Avi Newman

$$$$
