
  NIST    06301516323D 1   1.00000  -117.90755
Copyright by the U.S. Sec. Commerce on behalf of U.S.A. All rights reserved.
  9  8  0  0  0  0  0  0  0  0999 V2000
    0.6747    0.9910    0.8647 C    0  0  0  0  0  0  0  0  0  0  0  0
    1.7706    1.9676    1.1832 C    0  0  0  0  0  0  0  0  0  0  0  0
    3.0741    1.6868    1.1862 C    0  0  0  0  0  0  0  0  0  0  0  0
   -0.0233    0.8893    1.7066 H    0  0  0  0  0  0  0  0  0  0  0  0
    0.0805    1.3279    0.0044 H    0  0  0  0  0  0  0  0  0  0  0  0
    1.0760   -0.0014    0.6333 H    0  0  0  0  0  0  0  0  0  0  0  0
    1.4495    2.9811    1.4286 H    0  0  0  0  0  0  0  0  0  0  0  0
    3.8219    2.4382    1.4255 H    0  0  0  0  0  0  0  0  0  0  0  0
    3.4446    0.6913    0.9487 H    0  0  0  0  0  0  0  0  0  0  0  0
  1  2  1  0  0  0  0
  1  4  1  0  0  0  0
  1  5  1  0  0  0  0
  1  6  1  0  0  0  0
  2  3  2  0  0  0  0
  2  7  1  0  0  0  0
  3  8  1  0  0  0  0
  3  9  1  0  0  0  0
M  END
> <COPYRIGHT>
Collection (C) 2016 copyright by the U.S. Secretary of Commerce on behalf of the United States of America. All rights reserved.

> <DATE>
2015-06-30

> <CAS.NUMBER>
115-07-1

> <METHOD>
B3LYP/6-31G*

> <DIPOLE.MOMENT>
0.3550 debye

> <ELECTRONIC.ENERGY>
-117.907553348 hartree

> <IR.FREQUENCIES>
"Frequency (cm-1)"   "Intensity (km/mol)"
208.1665  0.4601
424.4111  0.9586
587.6280  9.7347
932.8768  1.8366
935.4889  38.7170
955.8089  4.1778
1034.0757  10.1546
1081.2209  0.4612
1203.2185  0.3404
1338.5502  0.3242
1434.6698  0.8086
1473.2343  0.7507
1509.6042  6.1061
1523.8634  10.0403
1738.3811  9.7850
3032.5982  27.1687
3079.2673  27.0613
3117.1591  10.0910
3144.9719  38.5755
3156.5719  3.8583
3234.6912  23.7563

> <ROTATIONAL.CONSTANTS>
46.77819 GHz
9.24529 GHz
8.10655 GHz

> <SOFTWARE>
Gaussian 09, Revision D.01

> <CONTRIBUTOR>
Avi Newman

$$$$
